<additional>
    <laneAreaDetector id="mainline_up_0_2" lane="mainline_up_0" pos="1400" freq="60" length="796" file=".\Output\ramp_eval.out"/>
    <laneAreaDetector id="mainline_up_1_2" lane="mainline_up_1" pos="1400" freq="60" length="796" file=".\Output\ramp_eval.out"/>
    <laneAreaDetector id="mainline_up_2_2" lane="mainline_up_2" pos="1400" freq="60" length="796" file=".\Output\ramp_eval.out"/>

    <laneAreaDetector id="merging_0" lane="merging_0" pos="0" freq="1200" length="129.5" file=".\Output\ramp_eval.out"/>
    <laneAreaDetector id="merging_1" lane="merging_1" pos="0" freq="1200" length="129.5" file=".\Output\ramp_eval.out"/>
    <laneAreaDetector id="merging_2" lane="merging_2" pos="0" freq="1200" length="129.5" file=".\Output\ramp_eval.out"/>
    <laneAreaDetector id="merging_3" lane="merging_3" pos="0" freq="1200" length="129.5" file=".\Output\ramp_eval.out"/>

</additional>
